data_0

loop_
  _atom_site_label
  _atom_site_fract_x
  _atom_site_fract_y
  _atom_site_fract_z
  _atom_site_type_symbol
         Co1       0.0       0.0       0.0       Co
         O1        0.5       0.5       0.5       O
_cell_angle_alpha                       60.00000000000001
_cell_angle_beta                        60.00000000000001
_cell_angle_gamma                       60.00000000000001
_cell_length_a                          3.003380424716542
_cell_length_b                          3.003380424716542
_cell_length_c                          3.003380424716542
loop_
  _symmetry_equiv_pos_as_xyz
         'x, y, z'
_symmetry_int_tables_number             1
_symmetry_space_group_name_H-M          'P 1'
