
##########################################################################
#               Crystallographic Information Format file
#               Produced by PyCifRW module
#  From Materials cloud: https://mc3d.materialscloud.org/#/details/AsGa/mc3d-13434/pbe
#  Modified using experimental lattice constants
##########################################################################

data_0

loop_
  _atom_site_label
  _atom_site_fract_x
  _atom_site_fract_y
  _atom_site_fract_z
  _atom_site_type_symbol
         Ga1       0.0       0.0       0.0       Ga
         As1       0.750  0.750  0.750  As
_cell_angle_alpha                       60.0
_cell_angle_beta                        60.0
_cell_angle_gamma                       60.0
_cell_length_a                          3.997
_cell_length_b                          3.997
_cell_length_c                          3.997
loop_
  _symmetry_equiv_pos_as_xyz
         'x, y, z'
_symmetry_int_tables_number             1
_symmetry_space_group_name_H-M          'P 1'
