
##########################################################################
#               Crystallographic Information Format file
#               Produced by PyCifRW module
#
#  This is a CIF file.  CIF has been adopted by the International
#  Union of Crystallography as the standard for data archiving and
#  transmission.
#
#  For information on this file format, follow the CIF links at
#  http://www.iucr.org
##########################################################################

data_0

loop_
  _atom_site_label
  _atom_site_fract_x
  _atom_site_fract_y
  _atom_site_fract_z
  _atom_site_type_symbol
         Si1       0.0       0.0       0.0       Si        
         Si2       0.24999999904689316           0.2500000008325667  0.250000001073647  Si
_cell_angle_alpha                       60.00000000000078
_cell_angle_beta                        60.00000000000021
_cell_angle_gamma                       59.999999999999794
_cell_length_a                          3.81196
_cell_length_b                          3.811959999999975
_cell_length_c                          3.8119600000000244
loop_
  _symmetry_equiv_pos_as_xyz
         'x, y, z' 
_symmetry_int_tables_number             1
_symmetry_space_group_name_H-M          'P 1'
